/*--------------------------------*- C++ -*----------------------------------*\
| =========                 |                                                 |
| \\      /  F ield         | OpenFOAM: The Open Source CFD Toolbox           |
|  \\    /   O peration     | Version:  2.0.1                                 |
|   \\  /    A nd           | Web:      www.OpenFOAM.com                      |
|    \\/     M anipulation  |                                                 |
\*---------------------------------------------------------------------------*/
FoamFile
{
    version     2.0;
    format      ascii;
    class       dictionary;
    location    "constant/topAir";
    object      thermophysicalProperties;
}
// * * * * * * * * * * * * * * * * * * * * * * * * * * * * * * * * * * * * * //

//thermoType      ePsiThermo<pureMixture<sutherlandTransport<specieThermo<hConstThermo<perfectGas>>>>>;
//thermoType      ePsiThermo<pureMixture<constTransport<specieThermo<hConstThermo<perfectGas>>>>>;

//thermoType      hPsiThermo<pureMixture<sutherlandTransport<specieThermo<hConstThermo<perfectGas>>>>>;
thermoType	hPsiThermo<pureMixture<constTransport<specieThermo<hConstThermo<perfectGas>>>>>;
// Note: these are the properties for a "normalised" inviscid gas
//       for which the speed of sound is 1 m/s at a temperature of 1K
//       and gamma = 7/5
mixture
{
    specie
    {
        nMoles          1;
        molWeight       28.9;
    }
    thermodynamics
    {
        Cp              1004.5;//1000;
        Hf              0;//2.544e+06;
    }
/*    
	transport
    {
        As          1.458e-6;//1.44886e-06;
        Ts          110.4;//110;
    }
*/
    transport
    {
        mu              0;//1.8e-05;
        Pr              0.7;
    }
 
}

//	Pr              0.72;



// ************************************************************************* //








