/*--------------------------------*- C++ -*----------------------------------*\
| =========                 |                                                 |
| \\      /  F ield         | OpenFOAM: The Open Source CFD Toolbox           |
|  \\    /   O peration     | Version:  2.0.1                                 |
|   \\  /    A nd           | Web:      www.OpenFOAM.com                      |
|    \\/     M anipulation  |                                                 |
\*---------------------------------------------------------------------------*/
FoamFile
{
    version     2.0;
    format      ascii;
    class       volScalarField;
    object      p;
}
// * * * * * * * * * * * * * * * * * * * * * * * * * * * * * * * * * * * * * //

dimensions      [ 1 -1 -2 0 0 0 0 ];

internalField   uniform 101325;

boundaryField
{
    top      
    {
        type            zeroGradient;
        value           uniform 101325;
    }

    right      
    {
        type            zeroGradient;
        value           uniform 101325;
    }

    bottom      
    {
        type            zeroGradient;
        value           uniform 101325;
    }
    left      
    {
        type            zeroGradient;
        value           uniform 101325;
    }

    frontAndBack    
    {
        type            empty;
    }
}

// ************************************************************************* //
