/*--------------------------------*- C++ -*----------------------------------*\
| =========                 |                                                 |
| \\      /  F ield         | OpenFOAM Extend Project: Open Source CFD        |
|  \\    /   O peration     | Version:  1.6-ext                               |
|   \\  /    A nd           | Web:      www.extend-project.de                 |
|    \\/     M anipulation  |                                                 |
\*---------------------------------------------------------------------------*/
FoamFile
{
    version     2.0;
    format      ascii;
    class       dictionary;
    location    "constant";
    object      thermophysicalProperties;
}
// * * * * * * * * * * * * * * * * * * * * * * * * * * * * * * * * * * * * * //

thermoType      hePsiThermo<pureMixture<const<hConst<perfectGas<specie>>,sensibleEnthalpy>>>;
//thermoType      hPsiThermo<pureMixture<constTransport<specieThermo<hConstThermo<perfectGas>>>>>;
//thermoType      hPsiThermo<pureMixture<sutherlandTransport<specieThermo<hConstThermo<perfectGas>>>>>;

mixture
{
    specie
    {
        nMoles          1;
        molWeight       28.9;
    }
    thermodynamics
    {
        Cp              1004.5;//1000;
        Hf              0;//2.544e+06;
    }
/* This is used for Sutherland viscosity
    transport
    {
        As          1.458e-6;//1.44886e-06;
        Ts          110.4;//110;
    }
*/
    transport
    {
        mu              1.72e-5;
        Pr              0.707;
    }

}
//mixture         air 1 28.9 1007 0 1.84e-05 0.7;

// ************************************************************************* //
